@<TRIPOS>MOLECULE
MOL
   48    51     1     0     0
SMALL
resp


@<TRIPOS>ATOM
      1 C1          -1.7090    -0.6600     0.0000 ca         1 MOL       0.199363
      2 C2          -2.2230     0.6720    -0.0000 ca         1 MOL      -0.063204
      3 C3          -2.6140    -1.7390     0.0000 ca         1 MOL      -0.223974
      4 C4          -3.5990     0.9220    -0.0000 ca         1 MOL      -0.152884
      5 C5          -3.9830    -1.4870     0.0000 ca         1 MOL      -0.231107
      6 C6          -4.4730    -0.1670    -0.0000 ca         1 MOL       0.051007
      7 C7          -0.2770    -0.6360     0.0000 cc         1 MOL      -0.088637
      8 C8           0.2770     0.6360    -0.0000 cd         1 MOL      -0.088637
      9 S1          -0.9450     1.8950    -0.0000 ss         1 MOL      -0.053441
     10 S2           0.9450    -1.8950     0.0000 ss         1 MOL      -0.053441
     11 C9           2.2230    -0.6720     0.0000 ca         1 MOL      -0.063204
     12 C10          1.7090     0.6600    -0.0000 ca         1 MOL       0.199363
     13 C11          3.5990    -0.9220     0.0000 ca         1 MOL      -0.152884
     14 C12          4.4730     0.1670     0.0000 ca         1 MOL       0.051007
     15 C13          2.6140     1.7390    -0.0000 ca         1 MOL      -0.223974
     16 C14          3.9830     1.4870    -0.0000 ca         1 MOL      -0.231107
     17 H1           3.9810    -1.9440     0.0000 ha         1 MOL       0.187898
     18 H2           4.6860     2.3220    -0.0000 ha         1 MOL       0.166157
     19 H3           2.2350     2.7640    -0.0000 ha         1 MOL       0.173252
     20 H4          -2.2350    -2.7640     0.0000 ha         1 MOL       0.173252
     21 H5          -4.6860    -2.3220     0.0000 ha         1 MOL       0.166157
     22 H6          -3.9810     1.9440    -0.0000 ha         1 MOL       0.187898
     23 C15          5.9860    -0.0830    -0.0000 c3         1 MOL       0.226189
     24 C16          6.2140    -1.6000     0.0000 c3         1 MOL      -0.247717
     25 H7           5.7710    -2.0730     0.8910 hc         1 MOL       0.061392
     26 H8           5.7710    -2.0730    -0.8910 hc         1 MOL       0.061392
     27 H9           7.2930    -1.8300    -0.0000 hc         1 MOL       0.061392
     28 C17          6.5700     0.5610     1.2640 c3         1 MOL      -0.247717
     29 H10          6.1340     0.1240     2.1770 hc         1 MOL       0.061392
     30 H11          7.6620     0.4060     1.3090 hc         1 MOL       0.061392
     31 H12          6.3850     1.6460     1.2860 hc         1 MOL       0.061392
     32 C18          6.5700     0.5610    -1.2640 c3         1 MOL      -0.247717
     33 H13          7.6620     0.4060    -1.3090 hc         1 MOL       0.061392
     34 H14          6.1340     0.1240    -2.1770 hc         1 MOL       0.061392
     35 H15          6.3850     1.6460    -1.2860 hc         1 MOL       0.061392
     36 C19         -5.9860     0.0830     0.0000 c3         1 MOL       0.226189
     37 C20         -6.2140     1.6000    -0.0000 c3         1 MOL      -0.247717
     38 H16         -5.7710     2.0730    -0.8910 hc         1 MOL       0.061392
     39 H17         -5.7710     2.0730     0.8910 hc         1 MOL       0.061392
     40 H18         -7.2930     1.8300     0.0000 hc         1 MOL       0.061392
     41 C21         -6.5700    -0.5610    -1.2640 c3         1 MOL      -0.247717
     42 H19         -6.1340    -0.1240    -2.1770 hc         1 MOL       0.061392
     43 H20         -7.6620    -0.4060    -1.3090 hc         1 MOL       0.061392
     44 H21         -6.3850    -1.6460    -1.2860 hc         1 MOL       0.061392
     45 C22         -6.5700    -0.5610     1.2640 c3         1 MOL      -0.247717
     46 H22         -7.6620    -0.4060     1.3090 hc         1 MOL       0.061392
     47 H23         -6.1340    -0.1240     2.1770 hc         1 MOL       0.061392
     48 H24         -6.3850    -1.6460     1.2860 hc         1 MOL       0.061392
@<TRIPOS>BOND
     1     1     2 ar  
     2     1     3 ar  
     3     1     7 1   
     4     2     4 ar  
     5     2     9 1   
     6     3     5 ar  
     7     3    20 1   
     8     4     6 ar  
     9     4    22 1   
    10     5     6 ar  
    11     5    21 1   
    12     6    36 1   
    13     7     8 2   
    14     7    10 1   
    15     8     9 1   
    16     8    12 1   
    17    10    11 1   
    18    11    12 ar  
    19    11    13 ar  
    20    12    15 ar  
    21    13    14 ar  
    22    13    17 1   
    23    14    16 ar  
    24    14    23 1   
    25    15    16 ar  
    26    15    19 1   
    27    16    18 1   
    28    23    24 1   
    29    23    28 1   
    30    23    32 1   
    31    24    25 1   
    32    24    26 1   
    33    24    27 1   
    34    28    29 1   
    35    28    30 1   
    36    28    31 1   
    37    32    33 1   
    38    32    34 1   
    39    32    35 1   
    40    36    37 1   
    41    36    41 1   
    42    36    45 1   
    43    37    38 1   
    44    37    39 1   
    45    37    40 1   
    46    41    42 1   
    47    41    43 1   
    48    41    44 1   
    49    45    46 1   
    50    45    47 1   
    51    45    48 1   
@<TRIPOS>SUBSTRUCTURE
     1 MOL         1 TEMP              0 ****  ****    0 ROOT
