@<TRIPOS>MOLECULE
MOL
   88    94     1     0     0
SMALL
resp


@<TRIPOS>ATOM
      1 C1           2.7850     0.0000    -0.6940 ca         1 MOL      -0.033510
      2 C2           1.3920     0.0000    -0.3470 ca         1 MOL       0.071904
      3 C3           3.4720     1.2320    -0.8660 ca         1 MOL      -0.048095
      4 C4           0.7120     1.2510    -0.1780 ca         1 MOL       0.015452
      5 C5           2.7930     2.4330    -0.6970 ca         1 MOL      -0.067011
      6 C6           1.4370     2.4390    -0.3580 ca         1 MOL      -0.170450
      7 C7           3.4720    -1.2320    -0.8660 ca         1 MOL      -0.048095
      8 C8           2.7930    -2.4330    -0.6970 ca         1 MOL      -0.067011
      9 C9           0.7120    -1.2510    -0.1780 ca         1 MOL       0.015452
     10 C10          1.4370    -2.4390    -0.3580 ca         1 MOL      -0.170450
     11 C11         -0.7120    -1.2510     0.1780 ca         1 MOL       0.015452
     12 C12         -0.7120     1.2510     0.1780 ca         1 MOL       0.015452
     13 C13         -1.3920     0.0000     0.3470 ca         1 MOL       0.071904
     14 C14         -1.4370     2.4390     0.3580 ca         1 MOL      -0.170450
     15 C15         -2.7930     2.4330     0.6970 ca         1 MOL      -0.067011
     16 C16         -2.7850    -0.0000     0.6940 ca         1 MOL      -0.033510
     17 C17         -3.4720     1.2320     0.8660 ca         1 MOL      -0.048095
     18 C18         -1.4370    -2.4390     0.3580 ca         1 MOL      -0.170450
     19 C19         -2.7930    -2.4330     0.6970 ca         1 MOL      -0.067011
     20 C20         -3.4720    -1.2320     0.8660 ca         1 MOL      -0.048095
     21 C21          4.9130    -1.2590    -1.2250 c          1 MOL       0.347987
     22 C22          4.9130     1.2590    -1.2250 c          1 MOL       0.347987
     23 C23         -4.9130     1.2590     1.2250 c          1 MOL       0.347987
     24 C24         -4.9130    -1.2590     1.2250 c          1 MOL       0.347987
     25 N1           5.5050    -0.0000    -1.3730 n          1 MOL      -0.065907
     26 O1           5.5630    -2.2860    -1.3870 o          1 MOL      -0.396181
     27 O2           5.5630     2.2860    -1.3870 o          1 MOL      -0.396181
     28 N2          -5.5050    -0.0000     1.3730 n          1 MOL      -0.065907
     29 O3          -5.5630    -2.2860     1.3870 o          1 MOL      -0.396181
     30 O4          -5.5630     2.2860     1.3870 o          1 MOL      -0.396181
     31 H1           3.3460    -3.3650    -0.8350 ha         1 MOL       0.123518
     32 H2           0.9450    -3.4040    -0.2360 ha         1 MOL       0.147073
     33 H3          -0.9450    -3.4040     0.2360 ha         1 MOL       0.147073
     34 H4          -3.3460    -3.3650     0.8350 ha         1 MOL       0.123518
     35 H5          -3.3460     3.3650     0.8350 ha         1 MOL       0.123518
     36 H6          -0.9450     3.4040     0.2360 ha         1 MOL       0.147073
     37 H7           0.9450     3.4040    -0.2360 ha         1 MOL       0.147073
     38 H8           3.3460     3.3650    -0.8350 ha         1 MOL       0.123518
     39 C25         -6.9510    -0.0000     1.7330 c3         1 MOL      -0.078629
     40 C26         -7.8770     0.0000     0.5120 c3         1 MOL      -0.028684
     41 C27         -9.3660     0.0000     0.8710 c3         1 MOL      -0.007666
     42 C28        -10.2910     0.0000    -0.3510 c3         1 MOL      -0.006312
     43 C29        -11.7800     0.0000     0.0080 c3         1 MOL      -0.001545
     44 C30        -12.7050    -0.0000    -1.2130 c3         1 MOL       0.004745
     45 C31        -14.1960     0.0000    -0.8560 c3         1 MOL       0.027426
     46 C32        -15.1100    -0.0000    -2.0840 c3         1 MOL      -0.094079
     47 H9          -7.1770     0.8820     2.3590 h1         1 MOL       0.069546
     48 H10         -7.1770    -0.8820     2.3590 h1         1 MOL       0.069546
     49 H11         -7.6520     0.8830    -0.1150 hc         1 MOL       0.030569
     50 H12         -7.6520    -0.8830    -0.1150 hc         1 MOL       0.030569
     51 H13         -9.5910     0.8830     1.4980 hc         1 MOL       0.017691
     52 H14         -9.5910    -0.8830     1.4980 hc         1 MOL       0.017691
     53 H15        -10.0670     0.8830    -0.9780 hc         1 MOL       0.002911
     54 H16        -10.0670    -0.8830    -0.9780 hc         1 MOL       0.002911
     55 H17        -12.0050     0.8830     0.6350 hc         1 MOL      -0.003194
     56 H18        -12.0050    -0.8830     0.6350 hc         1 MOL      -0.003194
     57 H19        -12.4820     0.8830    -1.8410 hc         1 MOL       0.003296
     58 H20        -12.4820    -0.8830    -1.8410 hc         1 MOL       0.003296
     59 H21        -14.4170     0.8820    -0.2290 hc         1 MOL       0.001958
     60 H22        -14.4170    -0.8820    -0.2290 hc         1 MOL       0.001958
     61 H23        -14.9310     0.8880    -2.7120 hc         1 MOL       0.020706
     62 H24        -16.1730    -0.0000    -1.8000 hc         1 MOL       0.020706
     63 H25        -14.9310    -0.8880    -2.7120 hc         1 MOL       0.020706
     64 C33          6.9510     0.0000    -1.7330 c3         1 MOL      -0.078629
     65 C34          7.8770    -0.0000    -0.5120 c3         1 MOL      -0.028684
     66 C35          9.3660    -0.0000    -0.8710 c3         1 MOL      -0.007666
     67 C36         10.2910    -0.0000     0.3510 c3         1 MOL      -0.006312
     68 C37         11.7800    -0.0000    -0.0080 c3         1 MOL      -0.001545
     69 C38         12.7050     0.0000     1.2130 c3         1 MOL       0.004745
     70 C39         14.1960    -0.0000     0.8560 c3         1 MOL       0.027426
     71 C40         15.1100     0.0000     2.0840 c3         1 MOL      -0.094079
     72 H26          7.1770    -0.8820    -2.3590 h1         1 MOL       0.069546
     73 H27          7.1770     0.8820    -2.3590 h1         1 MOL       0.069546
     74 H28          7.6520    -0.8830     0.1150 hc         1 MOL       0.030569
     75 H29          7.6520     0.8830     0.1150 hc         1 MOL       0.030569
     76 H30          9.5910    -0.8830    -1.4980 hc         1 MOL       0.017691
     77 H31          9.5910     0.8830    -1.4980 hc         1 MOL       0.017691
     78 H32         10.0670    -0.8830     0.9780 hc         1 MOL       0.002911
     79 H33         10.0670     0.8830     0.9780 hc         1 MOL       0.002911
     80 H34         12.0050    -0.8830    -0.6350 hc         1 MOL      -0.003194
     81 H35         12.0050     0.8830    -0.6350 hc         1 MOL      -0.003194
     82 H36         12.4820    -0.8830     1.8410 hc         1 MOL       0.003296
     83 H37         12.4820     0.8830     1.8410 hc         1 MOL       0.003296
     84 H38         14.4170    -0.8820     0.2290 hc         1 MOL       0.001958
     85 H39         14.4170     0.8820     0.2290 hc         1 MOL       0.001958
     86 H40         14.9310    -0.8880     2.7120 hc         1 MOL       0.020706
     87 H41         16.1730     0.0000     1.8000 hc         1 MOL       0.020706
     88 H42         14.9310     0.8880     2.7120 hc         1 MOL       0.020706
@<TRIPOS>BOND
     1     1     2 ar  
     2     1     3 ar  
     3     1     7 ar  
     4     2     4 ar  
     5     2     9 ar  
     6     3     5 ar  
     7     3    22 1   
     8     4     6 ar  
     9     4    12 ar  
    10     5     6 ar  
    11     5    38 1   
    12     6    37 1   
    13     7     8 ar  
    14     7    21 1   
    15     8    10 ar  
    16     8    31 1   
    17     9    10 ar  
    18     9    11 ar  
    19    10    32 1   
    20    11    13 ar  
    21    11    18 ar  
    22    12    13 ar  
    23    12    14 ar  
    24    13    16 ar  
    25    14    15 ar  
    26    14    36 1   
    27    15    17 ar  
    28    15    35 1   
    29    16    17 ar  
    30    16    20 ar  
    31    17    23 1   
    32    18    19 ar  
    33    18    33 1   
    34    19    20 ar  
    35    19    34 1   
    36    20    24 1   
    37    21    25 1   
    38    21    26 2   
    39    22    25 1   
    40    22    27 2   
    41    23    28 1   
    42    23    30 2   
    43    24    28 1   
    44    24    29 2   
    45    25    64 1   
    46    28    39 1   
    47    39    40 1   
    48    39    47 1   
    49    39    48 1   
    50    40    41 1   
    51    40    49 1   
    52    40    50 1   
    53    41    42 1   
    54    41    51 1   
    55    41    52 1   
    56    42    43 1   
    57    42    53 1   
    58    42    54 1   
    59    43    44 1   
    60    43    55 1   
    61    43    56 1   
    62    44    45 1   
    63    44    57 1   
    64    44    58 1   
    65    45    46 1   
    66    45    59 1   
    67    45    60 1   
    68    46    61 1   
    69    46    62 1   
    70    46    63 1   
    71    64    65 1   
    72    64    72 1   
    73    64    73 1   
    74    65    66 1   
    75    65    74 1   
    76    65    75 1   
    77    66    67 1   
    78    66    76 1   
    79    66    77 1   
    80    67    68 1   
    81    67    78 1   
    82    67    79 1   
    83    68    69 1   
    84    68    80 1   
    85    68    81 1   
    86    69    70 1   
    87    69    82 1   
    88    69    83 1   
    89    70    71 1   
    90    70    84 1   
    91    70    85 1   
    92    71    86 1   
    93    71    87 1   
    94    71    88 1   
@<TRIPOS>SUBSTRUCTURE
     1 MOL         1 TEMP              0 ****  ****    0 ROOT
