@<TRIPOS>MOLECULE
MOL
   40    46     1     0     0
SMALL
resp


@<TRIPOS>ATOM
      1 C1          -0.0000    -2.8700     0.0000 ca         1 MOL      -0.027800
      2 C2          -0.0000    -1.4340     0.0000 ca         1 MOL       0.061377
      3 C3          -0.0000    -3.5790     1.2320 ca         1 MOL       0.010120
      4 C4          -0.0000    -0.7340     1.2510 ca         1 MOL       0.027913
      5 C5          -0.0000    -2.8790     2.4330 ca         1 MOL      -0.088831
      6 C6          -0.0000    -1.4810     2.4390 ca         1 MOL      -0.191747
      7 C7           0.0000    -3.5790    -1.2320 ca         1 MOL       0.010120
      8 C8           0.0000    -2.8790    -2.4330 ca         1 MOL      -0.088831
      9 C9           0.0000    -0.7340    -1.2510 ca         1 MOL       0.027913
     10 C10          0.0000    -1.4810    -2.4390 ca         1 MOL      -0.191747
     11 C11          0.0000     0.7340    -1.2510 ca         1 MOL       0.027913
     12 C12          0.0000     0.7340     1.2510 ca         1 MOL       0.027913
     13 C13          0.0000     1.4340     0.0000 ca         1 MOL       0.061377
     14 C14          0.0000     1.4810     2.4390 ca         1 MOL      -0.191747
     15 C15          0.0000     2.8790     2.4330 ca         1 MOL      -0.088831
     16 C16          0.0000     2.8700     0.0000 ca         1 MOL      -0.027800
     17 C17          0.0000     3.5790     1.2320 ca         1 MOL       0.010120
     18 C18          0.0000     1.4810    -2.4390 ca         1 MOL      -0.191747
     19 C19          0.0000     2.8790    -2.4330 ca         1 MOL      -0.088831
     20 C20          0.0000     3.5790    -1.2320 ca         1 MOL       0.010120
     21 C21          0.0000    -5.0630    -1.2590 c          1 MOL       0.315412
     22 C22         -0.0000    -5.0630     1.2590 c          1 MOL       0.315412
     23 C23          0.0000     5.0630     1.2590 c          1 MOL       0.315412
     24 C24          0.0000     5.0630    -1.2590 c          1 MOL       0.315412
     25 N1           0.0000    -5.6740    -0.0000 n          1 MOL      -0.205872
     26 O1           0.0000    -5.7330    -2.2860 o          1 MOL      -0.414829
     27 O2          -0.0000    -5.7330     2.2860 o          1 MOL      -0.414829
     28 N2           0.0000     5.6740    -0.0000 n          1 MOL      -0.205872
     29 O3           0.0000     5.7330    -2.2860 o          1 MOL      -0.414829
     30 O4           0.0000     5.7330     2.2860 o          1 MOL      -0.414829
     31 H1           0.0000    -3.4490    -3.3650 ha         1 MOL       0.141983
     32 H2           0.0000    -0.9740    -3.4040 ha         1 MOL       0.153320
     33 H3           0.0000     0.9740    -3.4040 ha         1 MOL       0.153320
     34 H4           0.0000     3.4490    -3.3650 ha         1 MOL       0.141983
     35 H5          -0.0000     3.4490     3.3650 ha         1 MOL       0.141983
     36 H6          -0.0000     0.9740     3.4040 ha         1 MOL       0.153320
     37 H7          -0.0000    -0.9740     3.4040 ha         1 MOL       0.153320
     38 H8          -0.0000    -3.4490     3.3650 ha         1 MOL       0.141983
     39 H9           0.0000     6.6950    -0.0000 hn         1 MOL       0.265611
     40 H10         -0.0000    -6.6950    -0.0000 hn         1 MOL       0.265611
@<TRIPOS>BOND
     1     1     2 ar  
     2     1     3 ar  
     3     1     7 ar  
     4     2     4 ar  
     5     2     9 ar  
     6     3     5 ar  
     7     3    22 1   
     8     4     6 ar  
     9     4    12 ar  
    10     5     6 ar  
    11     5    38 1   
    12     6    37 1   
    13     7     8 ar  
    14     7    21 1   
    15     8    10 ar  
    16     8    31 1   
    17     9    10 ar  
    18     9    11 ar  
    19    10    32 1   
    20    11    13 ar  
    21    11    18 ar  
    22    12    13 ar  
    23    12    14 ar  
    24    13    16 ar  
    25    14    15 ar  
    26    14    36 1   
    27    15    17 ar  
    28    15    35 1   
    29    16    17 ar  
    30    16    20 ar  
    31    17    23 1   
    32    18    19 ar  
    33    18    33 1   
    34    19    20 ar  
    35    19    34 1   
    36    20    24 1   
    37    21    25 1   
    38    21    26 2   
    39    22    25 1   
    40    22    27 2   
    41    23    28 1   
    42    23    30 2   
    43    24    28 1   
    44    24    29 2   
    45    25    40 1   
    46    28    39 1   
@<TRIPOS>SUBSTRUCTURE
     1 MOL         1 TEMP              0 ****  ****    0 ROOT
