@<TRIPOS>MOLECULE
MOL
   24    27     1     0     0
SMALL
resp


@<TRIPOS>ATOM
      1 C1           0.5310     1.7540     0.0000 ca         1 MOL       0.080331
      2 C2          -0.8360     2.1670     0.0000 ca         1 MOL       0.021603
      3 C3           1.5400     2.7360     0.0000 ca         1 MOL      -0.167137
      4 C4          -1.1870     3.5210     0.0000 ca         1 MOL      -0.187220
      5 C5           1.1870     4.0820     0.0000 ca         1 MOL      -0.153775
      6 C6          -0.1660     4.4730     0.0000 ca         1 MOL      -0.131281
      7 C7           0.6140     0.3230     0.0000 cc         1 MOL      -0.052602
      8 C8          -0.6140    -0.3230    -0.0000 cd         1 MOL      -0.052602
      9 S1          -1.9600     0.8010     0.0000 ss         1 MOL      -0.029287
     10 S2           1.9600    -0.8010    -0.0000 ss         1 MOL      -0.029287
     11 C9           0.8360    -2.1670    -0.0000 ca         1 MOL       0.021603
     12 C10         -0.5310    -1.7540    -0.0000 ca         1 MOL       0.080331
     13 C11          1.1870    -3.5210    -0.0000 ca         1 MOL      -0.187220
     14 C12          0.1660    -4.4730    -0.0000 ca         1 MOL      -0.131281
     15 C13         -1.5400    -2.7360    -0.0000 ca         1 MOL      -0.167137
     16 C14         -1.1870    -4.0820    -0.0000 ca         1 MOL      -0.153775
     17 H1           2.2350    -3.8260    -0.0000 ha         1 MOL       0.182473
     18 H2           0.4240    -5.5340    -0.0000 ha         1 MOL       0.132948
     19 H3          -1.9670    -4.8460    -0.0000 ha         1 MOL       0.136045
     20 H4          -2.5900    -2.4350    -0.0000 ha         1 MOL       0.167902
     21 H5           2.5900     2.4350     0.0000 ha         1 MOL       0.167902
     22 H6           1.9670     4.8460     0.0000 ha         1 MOL       0.136045
     23 H7          -0.4240     5.5340     0.0000 ha         1 MOL       0.132948
     24 H8          -2.2350     3.8260     0.0000 ha         1 MOL       0.182473
@<TRIPOS>BOND
     1     1     2 ar  
     2     1     3 ar  
     3     1     7 1   
     4     2     4 ar  
     5     2     9 1   
     6     3     5 ar  
     7     3    21 1   
     8     4     6 ar  
     9     4    24 1   
    10     5     6 ar  
    11     5    22 1   
    12     6    23 1   
    13     7     8 2   
    14     7    10 1   
    15     8     9 1   
    16     8    12 1   
    17    10    11 1   
    18    11    12 ar  
    19    11    13 ar  
    20    12    15 ar  
    21    13    14 ar  
    22    13    17 1   
    23    14    16 ar  
    24    14    18 1   
    25    15    16 ar  
    26    15    20 1   
    27    16    19 1   
@<TRIPOS>SUBSTRUCTURE
     1 MOL         1 TEMP              0 ****  ****    0 ROOT
