@<TRIPOS>MOLECULE
MOL
   36    40     1     0     0
SMALL
resp


@<TRIPOS>ATOM
      1 C1           0.0000     3.6710     0.7270 ca         1 MOL       0.145031
      2 C2           0.0000     3.6710    -0.7270 ca         1 MOL       0.145031
      3 C3           0.0000     4.9340     1.4090 ca         1 MOL      -0.207926
      4 C4           0.0000     4.9340    -1.4090 ca         1 MOL      -0.207926
      5 C5           0.0000     6.1060     0.7160 ca         1 MOL      -0.114787
      6 C6           0.0000     6.1060    -0.7160 ca         1 MOL      -0.114787
      7 C7          -0.0000     2.4630     1.4060 ca         1 MOL      -0.274907
      8 C8          -0.0000     1.2240     0.7280 ca         1 MOL       0.085280
      9 C9           0.0000     2.4630    -1.4060 ca         1 MOL      -0.274907
     10 C10          0.0000     1.2240    -0.7280 ca         1 MOL       0.085280
     11 H1          -0.0000     4.9330     2.4940 ha         1 MOL       0.132067
     12 H2          -0.0000     2.4640     2.4920 ha         1 MOL       0.147042
     13 H3           0.0000     2.4640    -2.4920 ha         1 MOL       0.147042
     14 H4           0.0000     4.9330    -2.4940 ha         1 MOL       0.132067
     15 H5           0.0000     7.0530    -1.2450 ha         1 MOL       0.122674
     16 H6           0.0000     7.0530     1.2450 ha         1 MOL       0.122674
     17 C11         -0.0000    -0.0000     1.4070 ca         1 MOL      -0.201021
     18 C12         -0.0000    -1.2240     0.7280 ca         1 MOL       0.085280
     19 C13          0.0000     0.0000    -1.4070 ca         1 MOL      -0.201021
     20 C14         -0.0000    -1.2240    -0.7280 ca         1 MOL       0.085280
     21 H7          -0.0000    -0.0000     2.4930 ha         1 MOL       0.132076
     22 H8           0.0000     0.0000    -2.4930 ha         1 MOL       0.132076
     23 C15         -0.0000    -2.4630     1.4060 ca         1 MOL      -0.274907
     24 C16         -0.0000    -3.6710     0.7270 ca         1 MOL       0.145031
     25 C17         -0.0000    -2.4630    -1.4060 ca         1 MOL      -0.274907
     26 C18         -0.0000    -3.6710    -0.7270 ca         1 MOL       0.145031
     27 H9          -0.0000    -2.4640     2.4920 ha         1 MOL       0.147042
     28 H10         -0.0000    -2.4640    -2.4920 ha         1 MOL       0.147042
     29 C19         -0.0000    -4.9340     1.4090 ca         1 MOL      -0.207926
     30 C20         -0.0000    -6.1060     0.7160 ca         1 MOL      -0.114787
     31 C21         -0.0000    -4.9340    -1.4090 ca         1 MOL      -0.207926
     32 C22         -0.0000    -6.1060    -0.7160 ca         1 MOL      -0.114787
     33 H11         -0.0000    -4.9330     2.4940 ha         1 MOL       0.132067
     34 H12         -0.0000    -7.0530     1.2450 ha         1 MOL       0.122674
     35 H13         -0.0000    -7.0530    -1.2450 ha         1 MOL       0.122674
     36 H14         -0.0000    -4.9330    -2.4940 ha         1 MOL       0.132067
@<TRIPOS>BOND
     1     1     2 ar  
     2     1     3 ar  
     3     1     7 ar  
     4     2     4 ar  
     5     2     9 ar  
     6     3     5 ar  
     7     3    11 1   
     8     4     6 ar  
     9     4    14 1   
    10     5     6 ar  
    11     5    16 1   
    12     6    15 1   
    13     7     8 ar  
    14     7    12 1   
    15     8    10 ar  
    16     8    17 ar  
    17     9    10 ar  
    18     9    13 1   
    19    10    19 ar  
    20    17    18 ar  
    21    17    21 1   
    22    18    20 ar  
    23    18    23 ar  
    24    19    20 ar  
    25    19    22 1   
    26    20    25 ar  
    27    23    24 ar  
    28    23    27 1   
    29    24    26 ar  
    30    24    29 ar  
    31    25    26 ar  
    32    25    28 1   
    33    26    31 ar  
    34    29    30 ar  
    35    29    33 1   
    36    30    32 ar  
    37    30    34 1   
    38    31    32 ar  
    39    31    36 1   
    40    32    35 1   
@<TRIPOS>SUBSTRUCTURE
     1 MOL         1 TEMP              0 ****  ****    0 ROOT
