@<TRIPOS>MOLECULE
MOL
   51    54     1     0     0
SMALL
resp


@<TRIPOS>ATOM
      1 C1           2.4790     1.2740     0.0000 ca         1 MOL       0.088736
      2 C2           1.5030     0.2330     0.0000 ca         1 MOL      -0.034051
      3 C3           2.0460     2.6150     0.0000 ca         1 MOL      -0.161005
      4 C4           0.1340     0.5190     0.0000 ca         1 MOL      -0.139688
      5 C5           0.6830     2.8950     0.0000 ca         1 MOL      -0.193575
      6 C6          -0.2670     1.8560     0.0000 ca         1 MOL       0.034183
      7 C7           3.7980     0.7150     0.0000 cc         1 MOL      -0.072517
      8 C8           3.8330    -0.6720     0.0000 cd         1 MOL      -0.069783
      9 S1           2.2280    -1.3800     0.0000 ss         1 MOL      -0.029969
     10 S2           5.4020     1.4220    -0.0000 ss         1 MOL      -0.037475
     11 C9           6.1280    -0.1910    -0.0000 ca         1 MOL       0.026051
     12 C10          5.1520    -1.2320     0.0000 ca         1 MOL       0.127941
     13 C11          7.4970    -0.4770    -0.0000 ca         1 MOL      -0.187757
     14 C12          7.8980    -1.8140    -0.0000 ca         1 MOL      -0.126975
     15 C13          5.5840    -2.5720    -0.0000 ca         1 MOL      -0.183447
     16 C14          6.9480    -2.8530    -0.0000 ca         1 MOL      -0.146336
     17 H1           8.2360     0.3270    -0.0000 ha         1 MOL       0.175679
     18 H2           8.9630    -2.0530    -0.0000 ha         1 MOL       0.126982
     19 H3           7.2860    -3.8910    -0.0000 ha         1 MOL       0.131490
     20 H4           4.8490    -3.3800     0.0000 ha         1 MOL       0.162061
     21 H5           2.7820     3.4220     0.0000 ha         1 MOL       0.166907
     22 H6           0.3450     3.9330     0.0000 ha         1 MOL       0.128609
     23 H7          -0.6050    -0.2850     0.0000 ha         1 MOL       0.154659
     24 C15         -1.7610     2.1920     0.0000 c3         1 MOL      -0.052957
     25 C16         -2.6590     0.9500     0.0000 c3         1 MOL       0.008583
     26 C17         -4.1560     1.2740     0.0000 c3         1 MOL      -0.026253
     27 C18         -5.0520     0.0320    -0.0000 c3         1 MOL       0.011319
     28 C19         -6.5500     0.3560    -0.0000 c3         1 MOL       0.004154
     29 C20         -7.4460    -0.8860    -0.0000 c3         1 MOL      -0.007961
     30 C21         -8.9430    -0.5620    -0.0000 c3         1 MOL      -0.007246
     31 C22         -9.8410    -1.8040     0.0000 c3         1 MOL       0.027806
     32 C23        -11.3350    -1.4680     0.0000 c3         1 MOL      -0.100834
     33 H8          -2.0020     2.8120    -0.8820 hc         1 MOL       0.042676
     34 H9          -2.0020     2.8120     0.8820 hc         1 MOL       0.042676
     35 H10         -2.4190     0.3280    -0.8830 hc         1 MOL       0.010572
     36 H11         -2.4190     0.3280     0.8830 hc         1 MOL       0.010572
     37 H12         -4.3940     1.8960    -0.8830 hc         1 MOL       0.007001
     38 H13         -4.3940     1.8960     0.8830 hc         1 MOL       0.007001
     39 H14         -4.8140    -0.5900    -0.8830 hc         1 MOL      -0.001726
     40 H15         -4.8140    -0.5900     0.8830 hc         1 MOL      -0.001726
     41 H16         -6.7880     0.9780    -0.8830 hc         1 MOL      -0.001012
     42 H17         -6.7880     0.9780     0.8830 hc         1 MOL      -0.001012
     43 H18         -7.2070    -1.5080    -0.8830 hc         1 MOL       0.001303
     44 H19         -7.2070    -1.5080     0.8830 hc         1 MOL       0.001303
     45 H20         -9.1830     0.0600    -0.8830 hc         1 MOL       0.005897
     46 H21         -9.1830     0.0600     0.8830 hc         1 MOL       0.005897
     47 H22         -9.6000    -2.4250    -0.8820 hc         1 MOL       0.002450
     48 H23         -9.6000    -2.4250     0.8820 hc         1 MOL       0.002450
     49 H24        -11.6080    -0.8760    -0.8880 hc         1 MOL       0.022781
     50 H25        -11.9560    -2.3770    -0.0000 hc         1 MOL       0.022781
     51 H26        -11.6080    -0.8760     0.8880 hc         1 MOL       0.022781
@<TRIPOS>BOND
     1     1     2 ar  
     2     1     3 ar  
     3     1     7 1   
     4     2     4 ar  
     5     2     9 1   
     6     3     5 ar  
     7     3    21 1   
     8     4     6 ar  
     9     4    23 1   
    10     5     6 ar  
    11     5    22 1   
    12     6    24 1   
    13     7     8 2   
    14     7    10 1   
    15     8     9 1   
    16     8    12 1   
    17    10    11 1   
    18    11    12 ar  
    19    11    13 ar  
    20    12    15 ar  
    21    13    14 ar  
    22    13    17 1   
    23    14    16 ar  
    24    14    18 1   
    25    15    16 ar  
    26    15    20 1   
    27    16    19 1   
    28    24    25 1   
    29    24    33 1   
    30    24    34 1   
    31    25    26 1   
    32    25    35 1   
    33    25    36 1   
    34    26    27 1   
    35    26    37 1   
    36    26    38 1   
    37    27    28 1   
    38    27    39 1   
    39    27    40 1   
    40    28    29 1   
    41    28    41 1   
    42    28    42 1   
    43    29    30 1   
    44    29    43 1   
    45    29    44 1   
    46    30    31 1   
    47    30    45 1   
    48    30    46 1   
    49    31    32 1   
    50    31    47 1   
    51    31    48 1   
    52    32    49 1   
    53    32    50 1   
    54    32    51 1   
@<TRIPOS>SUBSTRUCTURE
     1 MOL         1 TEMP              0 ****  ****    0 ROOT
